<?xml version="1.0" encoding="UTF-8"?>
<!DOCTYPE network SYSTEM "http://www.matsim.org/files/dtd/network_v2.dtd">
<network>

<!-- ====================================================================== -->

	<nodes>
		<node id="1176053504" x="7477751.458908476" y="1.1344512746830083E7" >
		</node>
		<node id="1176053566" x="7478497.298943955" y="1.1344639044389699E7" >
		</node>
		<node id="1694488877" x="7478372.495691246" y="1.1344628480657354E7" >
		</node>
		<node id="1694488879" x="7478412.103659011" y="1.1344625456822682E7" >
		</node>
		<node id="1694529734" x="7478319.777069907" y="1.1345032677189423E7" >
		</node>
		<node id="1694529759" x="7477985.2511459915" y="1.1344976859536763E7" >
		</node>
		<node id="1694529785" x="7476819.510917547" y="1.1345125658038277E7" >
		</node>
		<node id="1694529787" x="7478514.436676846" y="1.1345065565416465E7" >
		</node>
		<node id="1837320459" x="7478785.607445967" y="1.1344902995817332E7" >
		</node>
		<node id="1837320476" x="7479399.015172625" y="1.1344292611104565E7" >
		</node>
		<node id="1837320572" x="7479087.499945439" y="1.1344372867773267E7" >
		</node>
		<node id="1837354773" x="7478544.618257838" y="1.1344941094359925E7" >
		</node>
		<node id="1837389544" x="7477386.590301223" y="1.1343976149472315E7" >
		</node>
		<node id="1837428756" x="7478608.891027781" y="1.1345441604840536E7" >
		</node>
		<node id="1837428844" x="7479239.9451841805" y="1.1345484470445925E7" >
		</node>
		<node id="1980535815" x="7479210.019385578" y="1.1345649106480742E7" >
		</node>
		<node id="1980535816" x="7479099.802921252" y="1.1345367258131668E7" >
		</node>
		<node id="1980551964" x="7478754.187013786" y="1.1344633604173604E7" >
		</node>
		<node id="1980551966" x="7478277.586584772" y="1.1344291455645103E7" >
		</node>
		<node id="1980551980" x="7478478.83474013" y="1.1344463825035585E7" >
		</node>
		<node id="2074221546" x="7476826.679582773" y="1.1347273220221983E7" >
		</node>
		<node id="2078304669" x="7478496.404054087" y="1.1345341322018424E7" >
		</node>
		<node id="2078304672" x="7478149.619776268" y="1.1345144414875288E7" >
		</node>
		<node id="2085957531" x="7477184.466979371" y="1.1346935877793843E7" >
		</node>
		<node id="2093035861" x="7478111.9816858005" y="1.1344586394931678E7" >
		</node>
		<node id="2315631896" x="7478310.908801167" y="1.1344908736502796E7" >
		</node>
		<node id="2375441070" x="7478276.000741194" y="1.134505358633126E7" >
		</node>
		<node id="2375441071" x="7478336.236021408" y="1.1345218175467363E7" >
		</node>
		<node id="257926216" x="7478880.716891843" y="1.1345251072902003E7" >
		</node>
		<node id="257926221" x="7478314.353765915" y="1.1345217616988927E7" >
		</node>
		<node id="257926316" x="7480972.911140972" y="1.1344467586134326E7" >
		</node>
		<node id="257927912" x="7478800.204103191" y="1.1346002246239817E7" >
		</node>
		<node id="257927913" x="7479043.95075843" y="1.1345479950780023E7" >
		</node>
		<node id="257927914" x="7478805.054287319" y="1.1345473004126161E7" >
		</node>
		<node id="257927916" x="7478639.924941137" y="1.1345966319622446E7" >
		</node>
		<node id="257927933" x="7478227.140159964" y="1.1346028841069367E7" >
		</node>
		<node id="257927945" x="7478354.774471727" y="1.134662055665883E7" >
		</node>
		<node id="2581059878" x="7483071.1097100815" y="1.133469886639293E7" >
		</node>
		<node id="264552369" x="7478281.976352423" y="1.1345214302735187E7" >
		</node>
		<node id="2824714688" x="7477795.88273889" y="1.1346357874936292E7" >
		</node>
		<node id="2840857129" x="7477140.694973227" y="1.1344638374322938E7" >
		</node>
		<node id="2908969960" x="7479932.765748549" y="1.1344350657737296E7" >
		</node>
		<node id="3012657751" x="7478196.0531282555" y="1.1344543564273726E7" >
		</node>
		<node id="3021908323" x="7478217.421980003" y="1.1345318438592989E7" >
		</node>
		<node id="3021911941" x="7477173.775812149" y="1.1346082723220352E7" >
		</node>
		<node id="3021911951" x="7478686.615982274" y="1.1346218437649239E7" >
		</node>
		<node id="3033895841" x="7478458.190757712" y="1.1344662670715101E7" >
		</node>
		<node id="3033904482" x="7478498.476495782" y="1.1345131333226219E7" >
		</node>
		<node id="3216804790" x="7478440.555341337" y="1.1345178148874793E7" >
		</node>
		<node id="3513601126" x="7476577.868832205" y="1.1346132290733451E7" >
		</node>
		<node id="35436482" x="7478010.170302808" y="1.1345010842259556E7" >
		</node>
		<node id="3780934120" x="7475057.146867326" y="1.1341332352732118E7" >
		</node>
		<node id="3805786064" x="7478352.1144798435" y="1.1346296787794212E7" >
		</node>
		<node id="3805915958" x="7477064.496995456" y="1.1344547073292393E7" >
		</node>
		<node id="3805916022" x="7476782.52099181" y="1.1344720284693731E7" >
		</node>
		<node id="3810935736" x="7477250.050580109" y="1.1343345694603156E7" >
		</node>
		<node id="3810950080" x="7477552.620831657" y="1.1344928817234583E7" >
		</node>
		<node id="3891325665" x="7477763.267781292" y="1.1345349603375448E7" >
		</node>
		<node id="3891325679" x="7477914.747362038" y="1.134543558479958E7" >
		</node>
		<node id="3891520727" x="7479803.974201648" y="1.1344298892094787E7" >
		</node>
		<node id="3999165178" x="7478013.102322485" y="1.1345549722737197E7" >
		</node>
		<node id="3999165186" x="7478125.543022278" y="1.1345461529019382E7" >
		</node>
		<node id="3999273898" x="7479133.430336533" y="1.134529238389402E7" >
		</node>
		<node id="4004597816" x="7478978.533001285" y="1.134493263166547E7" >
		</node>
		<node id="4004597844" x="7479865.856398463" y="1.1344874195265494E7" >
		</node>
		<node id="4004603909" x="7479479.565051038" y="1.1344770660968691E7" >
		</node>
		<node id="4004603938" x="7479733.908184478" y="1.1344662761905119E7" >
		</node>
		<node id="4004620069" x="7478507.137153586" y="1.1345209269512273E7" >
		</node>
		<node id="4004620073" x="7478485.771086498" y="1.1345180177911049E7" >
		</node>
		<node id="4004620076" x="7478469.143538578" y="1.134519883676298E7" >
		</node>
		<node id="4004620077" x="7478506.369340304" y="1.1345189515703805E7" >
		</node>
		<node id="4004620078" x="7478481.656723277" y="1.134518135378004E7" >
		</node>
		<node id="4004620080" x="7478500.983167726" y="1.1345183683081431E7" >
		</node>
		<node id="4004620083" x="7478476.044702504" y="1.134521533072628E7" >
		</node>
		<node id="4004620085" x="7478469.912662647" y="1.1345194403087653E7" >
		</node>
		<node id="4004621090" x="7478197.012885501" y="1.1345183059154723E7" >
		</node>
		<node id="4004630079" x="7478539.266711597" y="1.1345200718493074E7" >
		</node>
		<node id="4006753164" x="7476557.764243719" y="1.134528741932058E7" >
		</node>
		<node id="4006753185" x="7476929.341954589" y="1.1345323436884202E7" >
		</node>
		<node id="4006753186" x="7476544.770831751" y="1.134538747177331E7" >
		</node>
		<node id="4006753730" x="7476487.3545021005" y="1.1344583906663632E7" >
		</node>
		<node id="4006756606" x="7476934.51462168" y="1.1345330554766068E7" >
		</node>
		<node id="4019244692" x="7477990.783996504" y="1.1347683925180122E7" >
		</node>
		<node id="4019464978" x="7477670.825636646" y="1.1344370898497842E7" >
		</node>
		<node id="4019465018" x="7477327.135089391" y="1.1344095688401617E7" >
		</node>
		<node id="4029842796" x="7477021.6701903185" y="1.1345069244594354E7" >
		</node>
		<node id="4029844378" x="7477325.611381212" y="1.1345031009101264E7" >
		</node>
		<node id="4035896872" x="7479661.74953269" y="1.1344174626363242E7" >
		</node>
		<node id="4036017554" x="7478421.7724154545" y="1.1346148501870956E7" >
		</node>
		<node id="4036017555" x="7478421.296685337" y="1.1346188791616563E7" >
		</node>
		<node id="4036017556" x="7478446.713639972" y="1.1346128997728802E7" >
		</node>
		<node id="4036017559" x="7478414.543368914" y="1.1346134782471357E7" >
		</node>
		<node id="4036017560" x="7478471.817138638" y="1.1346162738097839E7" >
		</node>
		<node id="4036017561" x="7478441.105853464" y="1.1346158915993506E7" >
		</node>
		<node id="4047457062" x="7478426.008353367" y="1.1346181887729082E7" >
		</node>
		<node id="4156039473" x="7478869.745287443" y="1.1344856692831306E7" >
		</node>
		<node id="4156039475" x="7478842.837618883" y="1.1344862150045726E7" >
		</node>
		<node id="4157023097" x="7479647.487976883" y="1.1344283891601296E7" >
		</node>
		<node id="4157023129" x="7479554.707321077" y="1.1344490909722652E7" >
		</node>
		<node id="4180031215" x="7478441.57760687" y="1.1344627521253882E7" >
		</node>
		<node id="5309657851" x="7476874.809523119" y="1.1344882496199679E7" >
		</node>
		<node id="5401107225" x="7479326.921971425" y="1.1346526698304849E7" >
		</node>
		<node id="5504960591" x="7478090.171199444" y="1.134517319201316E7" >
		</node>
		<node id="5507135508" x="7478831.169290522" y="1.1345399263445143E7" >
		</node>
		<node id="5509947709" x="7477744.293408305" y="1.1345614397881206E7" >
		</node>
		<node id="5528637158" x="7478016.04668936" y="1.1346225148762442E7" >
		</node>
		<node id="5559945323" x="7477633.14458022" y="1.1346206357889455E7" >
		</node>
		<node id="5561185847" x="7477646.52399359" y="1.13455531060944E7" >
		</node>
		<node id="568950403" x="7477180.6261440525" y="1.1346094161874857E7" >
		</node>
		<node id="568950404" x="7477219.476032103" y="1.1346125871924102E7" >
		</node>
		<node id="568950423" x="7478460.537810469" y="1.1346152923289463E7" >
		</node>
		<node id="5693657962" x="7478977.702638514" y="1.1345263952525634E7" >
		</node>
		<node id="5748095439" x="7477584.191667552" y="1.1346091131549371E7" >
		</node>
		<node id="5748095450" x="7477486.069783685" y="1.1346148578715919E7" >
		</node>
		<node id="618043613" x="7477086.303405698" y="1.1344595555666756E7" >
		</node>
		<node id="618043670" x="7478206.657289682" y="1.1344480443585118E7" >
		</node>
		<node id="618043673" x="7478190.729980593" y="1.1344639348351434E7" >
		</node>
		<node id="618043679" x="7478432.590106647" y="1.134454595769605E7" >
		</node>
		<node id="618043684" x="7477474.70023357" y="1.1344854405621193E7" >
		</node>
		<node id="618043719" x="7477594.606648242" y="1.1345355842796786E7" >
		</node>
		<node id="618043741" x="7478145.900237442" y="1.1345453380550649E7" >
		</node>
		<node id="618043745" x="7478209.08633249" y="1.1345285785992451E7" >
		</node>
		<node id="618043747" x="7478723.8668536125" y="1.1344589949389296E7" >
		</node>
		<node id="618043757" x="7478450.278232617" y="1.1344632565282343E7" >
		</node>
		<node id="618043760" x="7478446.905599361" y="1.1344630141075676E7" >
		</node>
		<node id="618043786" x="7477468.019738569" y="1.1345476357003806E7" >
		</node>
		<node id="618073229" x="7479358.056029064" y="1.134448565360751E7" >
		</node>
		<node id="618073247" x="7478270.102216949" y="1.1344893609733326E7" >
		</node>
		<node id="618073249" x="7478444.254560868" y="1.1344721662894318E7" >
		</node>
		<node id="618073257" x="7478853.857964052" y="1.1344757624854147E7" >
		</node>
		<node id="618073263" x="7478875.556149581" y="1.134490030374681E7" >
		</node>
		<node id="618073265" x="7478434.861967448" y="1.134480396118758E7" >
		</node>
		<node id="618073267" x="7479008.347546721" y="1.1344527451693317E7" >
		</node>
		<node id="6262067727" x="7478297.324144003" y="1.134497339060846E7" >
		</node>
		<node id="6293658228" x="7477509.885115293" y="1.1343941565180793E7" >
		</node>
		<node id="6324979463" x="7478425.601741399" y="1.134521308143088E7" >
		</node>
		<node id="6454095345" x="7477333.618052198" y="1.1344302376546796E7" >
		</node>
		<node id="6454095351" x="7477209.388944066" y="1.1344292453359418E7" >
		</node>
		<node id="7094485192" x="7478192.756564353" y="1.1344649033078244E7" >
		</node>
		<node id="7094485197" x="7478127.41563931" y="1.1344594795430344E7" >
		</node>
		<node id="7399161772" x="7477891.711651696" y="1.1345739421475109E7" >
		</node>
		<node id="7406044041" x="7479148.911594784" y="1.1343831353973778E7" >
		</node>
		<node id="7572625785" x="7479331.390961422" y="1.134462955099687E7" >
		</node>
		<node id="7572625839" x="7479371.450614228" y="1.134482870696139E7" >
		</node>
		<node id="7575113515" x="7479480.457320389" y="1.1344567938409796E7" >
		</node>
		<node id="7821052164" x="7477262.484055491" y="1.1344048445569173E7" >
		</node>
		<node id="8936974807" x="7478565.869193979" y="1.1345618567080643E7" >
		</node>
		<node id="8936981943" x="7478549.170068107" y="1.1345469219289724E7" >
		</node>
		<node id="8936981944" x="7478332.0840619765" y="1.134546702717601E7" >
		</node>
		<node id="8936981946" x="7478332.714943085" y="1.1345425442317273E7" >
		</node>
		<node id="8936981951" x="7478644.159518663" y="1.1345297852241298E7" >
		</node>
		<node id="8936981953" x="7478663.40701714" y="1.1345221328836244E7" >
		</node>
		<node id="8936981962" x="7478522.528391976" y="1.1345268293168077E7" >
		</node>
		<node id="8936981964" x="7478571.439914163" y="1.1345298981469428E7" >
		</node>
		<node id="8936981965" x="7478543.722795619" y="1.1345347668865293E7" >
		</node>
		<node id="8936981968" x="7478601.07724008" y="1.1345469740612645E7" >
		</node>
		<node id="8936981979" x="7478636.7787071895" y="1.1345326823853552E7" >
		</node>
		<node id="8938887932" x="7478422.22575595" y="1.1345295135749947E7" >
		</node>
		<node id="8938887933" x="7478334.946670952" y="1.1345293724772548E7" >
		</node>
		<node id="8939055476" x="7478490.300970524" y="1.1345929192835305E7" >
		</node>
		<node id="8939118984" x="7478764.131974474" y="1.1345473495955983E7" >
		</node>
		<node id="8939407003" x="7478977.9021033235" y="1.1345223968472676E7" >
		</node>
		<node id="8939407009" x="7478897.183368534" y="1.1345150378641982E7" >
		</node>
		<node id="8939407010" x="7478892.180588897" y="1.1345252761387283E7" >
		</node>
		<node id="8939412541" x="7478970.061040007" y="1.1345637639187537E7" >
		</node>
		<node id="8939412580" x="7478752.302921233" y="1.1345627082341403E7" >
		</node>
		<node id="8939412582" x="7478629.323258995" y="1.13456207177558E7" >
		</node>
		<node id="896200883" x="7478563.915620133" y="1.1346190901458107E7" >
		</node>
		<node id="9201280520" x="7478472.073158803" y="1.134521062779475E7" >
		</node>
	</nodes>

<!-- ====================================================================== -->

	<links capperiod="01:00:00" effectivecellsize="7.5" effectivelanewidth="3.75">
		<link id="1" from="1980535815" to="1837428844" length="167.3677366916301" freespeed="11.11111111111111" capacity="600.0" permlanes="1.0" oneway="1" modes="car, bicycle" >
			<attributes>
				<attribute name="origid" class="java.lang.String">172901711</attribute>
				<attribute name="type" class="java.lang.String">tertiary</attribute>
			</attributes>
		</link>
		<link id="10" from="8939407010" to="257926216" length="11.587378163125999" freespeed="13.88888888888889" capacity="2000.0" permlanes="1.0" oneway="1" modes="car, bicycle" >
			<attributes>
				<attribute name="origid" class="java.lang.String">23802733</attribute>
				<attribute name="type" class="java.lang.String">trunk</attribute>
			</attributes>
		</link>
		<link id="100" from="4004620078" to="3216804790" length="41.22614479924768" freespeed="19.444444444444443" capacity="4000.0" permlanes="2.0" oneway="1" modes="car, bicycle" >
			<attributes>
				<attribute name="origid" class="java.lang.String">397686401</attribute>
				<attribute name="type" class="java.lang.String">trunk</attribute>
			</attributes>
		</link>
		<link id="101" from="7575113515" to="1837320476" length="618.0008085129014" freespeed="8.333333333333334" capacity="600.0" permlanes="1.0" oneway="1" modes="car, bicycle" >
			<attributes>
				<attribute name="origid" class="java.lang.String">172889208</attribute>
				<attribute name="type" class="java.lang.String">residential</attribute>
			</attributes>
		</link>
		<link id="102" from="1837320476" to="7575113515" length="618.0008085129014" freespeed="8.333333333333334" capacity="600.0" permlanes="1.0" oneway="1" modes="car, bicycle" >
			<attributes>
				<attribute name="origid" class="java.lang.String">172889208</attribute>
				<attribute name="type" class="java.lang.String">residential</attribute>
			</attributes>
		</link>
		<link id="103" from="1837320476" to="4035896872" length="1122.7156763682633" freespeed="8.333333333333334" capacity="600.0" permlanes="1.0" oneway="1" modes="car, bicycle" >
			<attributes>
				<attribute name="origid" class="java.lang.String">172889208</attribute>
				<attribute name="type" class="java.lang.String">residential</attribute>
			</attributes>
		</link>
		<link id="104" from="4035896872" to="1837320476" length="1122.7156763682633" freespeed="8.333333333333334" capacity="600.0" permlanes="1.0" oneway="1" modes="car, bicycle" >
			<attributes>
				<attribute name="origid" class="java.lang.String">172889208</attribute>
				<attribute name="type" class="java.lang.String">residential</attribute>
			</attributes>
		</link>
		<link id="105" from="6324979463" to="4004620083" length="50.49308521821314" freespeed="11.11111111111111" capacity="4000.0" permlanes="2.0" oneway="1" modes="car, bicycle" >
			<attributes>
				<attribute name="origid" class="java.lang.String">397686402</attribute>
				<attribute name="type" class="java.lang.String">trunk</attribute>
			</attributes>
		</link>
		<link id="106" from="5748095450" to="5509947709" length="730.4630379561482" freespeed="8.333333333333334" capacity="600.0" permlanes="1.0" oneway="1" modes="car, bicycle" >
			<attributes>
				<attribute name="origid" class="java.lang.String">606186015</attribute>
				<attribute name="type" class="java.lang.String">residential</attribute>
			</attributes>
		</link>
		<link id="107" from="5509947709" to="5748095450" length="730.4630379561482" freespeed="8.333333333333334" capacity="600.0" permlanes="1.0" oneway="1" modes="car, bicycle" >
			<attributes>
				<attribute name="origid" class="java.lang.String">606186015</attribute>
				<attribute name="type" class="java.lang.String">residential</attribute>
			</attributes>
		</link>
		<link id="108" from="4004621090" to="2078304672" length="61.15134614915752" freespeed="16.666666666666668" capacity="2000.0" permlanes="1.0" oneway="1" modes="car, bicycle" >
			<attributes>
				<attribute name="origid" class="java.lang.String">5131121</attribute>
				<attribute name="type" class="java.lang.String">trunk</attribute>
			</attributes>
		</link>
		<link id="109" from="2078304672" to="4004621090" length="61.15134614915752" freespeed="16.666666666666668" capacity="2000.0" permlanes="1.0" oneway="1" modes="car, bicycle" >
			<attributes>
				<attribute name="origid" class="java.lang.String">5131121</attribute>
				<attribute name="type" class="java.lang.String">trunk</attribute>
			</attributes>
		</link>
		<link id="11" from="8939407010" to="5693657962" length="86.26304582857593" freespeed="13.88888888888889" capacity="2000.0" permlanes="1.0" oneway="1" modes="car, bicycle" >
			<attributes>
				<attribute name="origid" class="java.lang.String">23802733</attribute>
				<attribute name="type" class="java.lang.String">trunk</attribute>
			</attributes>
		</link>
		<link id="110" from="2078304672" to="35436482" length="193.90102720229328" freespeed="16.666666666666668" capacity="2000.0" permlanes="1.0" oneway="1" modes="car, bicycle" >
			<attributes>
				<attribute name="origid" class="java.lang.String">5131121</attribute>
				<attribute name="type" class="java.lang.String">trunk</attribute>
			</attributes>
		</link>
		<link id="111" from="35436482" to="2078304672" length="193.90102720229328" freespeed="16.666666666666668" capacity="2000.0" permlanes="1.0" oneway="1" modes="car, bicycle" >
			<attributes>
				<attribute name="origid" class="java.lang.String">5131121</attribute>
				<attribute name="type" class="java.lang.String">trunk</attribute>
			</attributes>
		</link>
		<link id="112" from="35436482" to="1694529759" length="42.152104590752366" freespeed="16.666666666666668" capacity="2000.0" permlanes="1.0" oneway="1" modes="car, bicycle" >
			<attributes>
				<attribute name="origid" class="java.lang.String">5131121</attribute>
				<attribute name="type" class="java.lang.String">trunk</attribute>
			</attributes>
		</link>
		<link id="113" from="1694529759" to="35436482" length="42.152104590752366" freespeed="16.666666666666668" capacity="2000.0" permlanes="1.0" oneway="1" modes="car, bicycle" >
			<attributes>
				<attribute name="origid" class="java.lang.String">5131121</attribute>
				<attribute name="type" class="java.lang.String">trunk</attribute>
			</attributes>
		</link>
		<link id="114" from="1694529759" to="1176053504" length="519.6871619086684" freespeed="16.666666666666668" capacity="2000.0" permlanes="1.0" oneway="1" modes="car, bicycle" >
			<attributes>
				<attribute name="origid" class="java.lang.String">5131121</attribute>
				<attribute name="type" class="java.lang.String">trunk</attribute>
			</attributes>
		</link>
		<link id="115" from="1176053504" to="1694529759" length="519.6871619086684" freespeed="16.666666666666668" capacity="2000.0" permlanes="1.0" oneway="1" modes="car, bicycle" >
			<attributes>
				<attribute name="origid" class="java.lang.String">5131121</attribute>
				<attribute name="type" class="java.lang.String">trunk</attribute>
			</attributes>
		</link>
		<link id="116" from="1176053504" to="4019464978" length="163.16777474397875" freespeed="16.666666666666668" capacity="2000.0" permlanes="1.0" oneway="1" modes="car, bicycle" >
			<attributes>
				<attribute name="origid" class="java.lang.String">5131121</attribute>
				<attribute name="type" class="java.lang.String">trunk</attribute>
			</attributes>
		</link>
		<link id="117" from="4019464978" to="1176053504" length="163.16777474397875" freespeed="16.666666666666668" capacity="2000.0" permlanes="1.0" oneway="1" modes="car, bicycle" >
			<attributes>
				<attribute name="origid" class="java.lang.String">5131121</attribute>
				<attribute name="type" class="java.lang.String">trunk</attribute>
			</attributes>
		</link>
		<link id="118" from="4019464978" to="3780934120" length="4019.0159034733942" freespeed="16.666666666666668" capacity="2000.0" permlanes="1.0" oneway="1" modes="car, bicycle" >
			<attributes>
				<attribute name="origid" class="java.lang.String">5131121</attribute>
				<attribute name="type" class="java.lang.String">trunk</attribute>
			</attributes>
		</link>
		<link id="119" from="3780934120" to="4019464978" length="4019.0159034733942" freespeed="16.666666666666668" capacity="2000.0" permlanes="1.0" oneway="1" modes="car, bicycle" >
			<attributes>
				<attribute name="origid" class="java.lang.String">5131121</attribute>
				<attribute name="type" class="java.lang.String">trunk</attribute>
			</attributes>
		</link>
		<link id="12" from="5693657962" to="8939407010" length="86.26304582857593" freespeed="13.88888888888889" capacity="2000.0" permlanes="1.0" oneway="1" modes="car, bicycle" >
			<attributes>
				<attribute name="origid" class="java.lang.String">23802733</attribute>
				<attribute name="type" class="java.lang.String">trunk</attribute>
			</attributes>
		</link>
		<link id="120" from="8939412541" to="1980535815" length="240.3439885513423" freespeed="11.11111111111111" capacity="600.0" permlanes="1.0" oneway="1" modes="car, bicycle" >
			<attributes>
				<attribute name="origid" class="java.lang.String">298282119</attribute>
				<attribute name="type" class="java.lang.String">tertiary</attribute>
			</attributes>
		</link>
		<link id="121" from="1980535815" to="8939412541" length="240.3439885513423" freespeed="11.11111111111111" capacity="600.0" permlanes="1.0" oneway="1" modes="car, bicycle" >
			<attributes>
				<attribute name="origid" class="java.lang.String">298282119</attribute>
				<attribute name="type" class="java.lang.String">tertiary</attribute>
			</attributes>
		</link>
		<link id="122" from="6262067727" to="2315631896" length="66.14204359065026" freespeed="6.944444444444445" capacity="600.0" permlanes="1.0" oneway="1" modes="car, bicycle" >
			<attributes>
				<attribute name="origid" class="java.lang.String">668689819</attribute>
				<attribute name="type" class="java.lang.String">tertiary</attribute>
			</attributes>
		</link>
		<link id="123" from="3021911951" to="257927912" length="244.25826823939818" freespeed="16.666666666666668" capacity="4000.0" permlanes="2.0" oneway="1" modes="car, bicycle" >
			<attributes>
				<attribute name="origid" class="java.lang.String">298282118</attribute>
				<attribute name="type" class="java.lang.String">trunk</attribute>
			</attributes>
		</link>
		<link id="124" from="3033904482" to="4004620073" length="50.47011611655109" freespeed="13.88888888888889" capacity="600.0" permlanes="1.0" oneway="1" modes="car, bicycle" >
			<attributes>
				<attribute name="origid" class="java.lang.String">668689818</attribute>
				<attribute name="type" class="java.lang.String">tertiary</attribute>
			</attributes>
		</link>
		<link id="125" from="3891325665" to="3891325679" length="191.62406752365004" freespeed="8.333333333333334" capacity="600.0" permlanes="1.0" oneway="1" modes="car, bicycle" >
			<attributes>
				<attribute name="origid" class="java.lang.String">385799868</attribute>
				<attribute name="type" class="java.lang.String">residential</attribute>
			</attributes>
		</link>
		<link id="126" from="3891325679" to="3891325665" length="191.62406752365004" freespeed="8.333333333333334" capacity="600.0" permlanes="1.0" oneway="1" modes="car, bicycle" >
			<attributes>
				<attribute name="origid" class="java.lang.String">385799868</attribute>
				<attribute name="type" class="java.lang.String">residential</attribute>
			</attributes>
		</link>
		<link id="127" from="3891325679" to="5509947709" length="264.7494311637545" freespeed="8.333333333333334" capacity="600.0" permlanes="1.0" oneway="1" modes="car, bicycle" >
			<attributes>
				<attribute name="origid" class="java.lang.String">385799868</attribute>
				<attribute name="type" class="java.lang.String">residential</attribute>
			</attributes>
		</link>
		<link id="128" from="5509947709" to="3891325679" length="264.7494311637545" freespeed="8.333333333333334" capacity="600.0" permlanes="1.0" oneway="1" modes="car, bicycle" >
			<attributes>
				<attribute name="origid" class="java.lang.String">385799868</attribute>
				<attribute name="type" class="java.lang.String">residential</attribute>
			</attributes>
		</link>
		<link id="129" from="618073247" to="2315631896" length="46.416686912937905" freespeed="11.11111111111111" capacity="600.0" permlanes="1.0" oneway="1" modes="car, bicycle" >
			<attributes>
				<attribute name="origid" class="java.lang.String">668689820</attribute>
				<attribute name="type" class="java.lang.String">tertiary</attribute>
			</attributes>
		</link>
		<link id="13" from="8936981946" to="2078304669" length="250.1074878349579" freespeed="8.333333333333334" capacity="600.0" permlanes="1.0" oneway="1" modes="car, bicycle" >
			<attributes>
				<attribute name="origid" class="java.lang.String">172901703</attribute>
				<attribute name="type" class="java.lang.String">residential</attribute>
			</attributes>
		</link>
		<link id="130" from="4157023129" to="1837320476" length="293.35145611907586" freespeed="5.555555555555555" capacity="600.0" permlanes="1.0" oneway="1" modes="car, bicycle" >
			<attributes>
				<attribute name="origid" class="java.lang.String">555241810</attribute>
				<attribute name="type" class="java.lang.String">residential</attribute>
			</attributes>
		</link>
		<link id="131" from="1837320476" to="4157023129" length="293.35145611907586" freespeed="5.555555555555555" capacity="600.0" permlanes="1.0" oneway="1" modes="car, bicycle" >
			<attributes>
				<attribute name="origid" class="java.lang.String">555241810</attribute>
				<attribute name="type" class="java.lang.String">residential</attribute>
			</attributes>
		</link>
		<link id="132" from="618043673" to="7094485197" length="77.60795991123065" freespeed="13.88888888888889" capacity="600.0" permlanes="1.0" oneway="1" modes="car, bicycle" >
			<attributes>
				<attribute name="origid" class="java.lang.String">200292027</attribute>
				<attribute name="type" class="java.lang.String">tertiary</attribute>
			</attributes>
		</link>
		<link id="133" from="7094485197" to="2093035861" length="17.572003265814715" freespeed="13.88888888888889" capacity="600.0" permlanes="1.0" oneway="1" modes="car, bicycle" >
			<attributes>
				<attribute name="origid" class="java.lang.String">200292027</attribute>
				<attribute name="type" class="java.lang.String">tertiary</attribute>
			</attributes>
		</link>
		<link id="134" from="8939412541" to="8939412580" length="218.01386490820633" freespeed="11.11111111111111" capacity="600.0" permlanes="1.0" oneway="1" modes="car, bicycle" >
			<attributes>
				<attribute name="origid" class="java.lang.String">298282120</attribute>
				<attribute name="type" class="java.lang.String">tertiary</attribute>
			</attributes>
		</link>
		<link id="135" from="8936981968" to="8936974807" length="152.9343783689894" freespeed="13.88888888888889" capacity="4000.0" permlanes="2.0" oneway="1" modes="car, bicycle" >
			<attributes>
				<attribute name="origid" class="java.lang.String">397105400</attribute>
				<attribute name="type" class="java.lang.String">trunk</attribute>
			</attributes>
		</link>
		<link id="136" from="8936974807" to="8939055476" length="319.6948284461805" freespeed="13.88888888888889" capacity="4000.0" permlanes="2.0" oneway="1" modes="car, bicycle" >
			<attributes>
				<attribute name="origid" class="java.lang.String">397105400</attribute>
				<attribute name="type" class="java.lang.String">trunk</attribute>
			</attributes>
		</link>
		<link id="137" from="8939055476" to="4036017556" length="204.55341482331147" freespeed="13.88888888888889" capacity="4000.0" permlanes="2.0" oneway="1" modes="car, bicycle" >
			<attributes>