<?xml version="1.0" encoding="UTF-8"?>
<!DOCTYPE network SYSTEM "http://www.matsim.org/files/dtd/network_v2.dtd">
<network>

<!-- ====================================================================== -->

	<nodes>
		<node id="1694529734" x="7478319.777069907" y="1.1345032677189423E7" >
		</node>
		<node id="1694529787" x="7478514.436676846" y="1.1345065565416465E7" >
		</node>
		<node id="1837320459" x="7478785.607445967" y="1.1344902995817332E7" >
		</node>
		<node id="1837354773" x="7478544.618257838" y="1.1344941094359925E7" >
		</node>
		<node id="1980551964" x="7478754.187013786" y="1.1344633604173604E7" >
		</node>
		<node id="2078304669" x="7478496.404054087" y="1.1345341322018424E7" >
		</node>
		<node id="2078304672" x="7478149.619776268" y="1.1345144414875288E7" >
		</node>
		<node id="2315631896" x="7478310.908801167" y="1.1344908736502796E7" >
		</node>
		<node id="2375441070" x="7478276.000741194" y="1.134505358633126E7" >
		</node>
		<node id="2375441071" x="7478336.236021408" y="1.1345218175467363E7" >
		</node>
		<node id="257926216" x="7478880.716891843" y="1.1345251072902003E7" >
		</node>
		<node id="257926221" x="7478314.353765915" y="1.1345217616988927E7" >
		</node>
		<node id="257926316" x="7480972.911140972" y="1.1344467586134326E7" >
		</node>
		<node id="264552369" x="7478281.976352423" y="1.1345214302735187E7" >
		</node>
		<node id="3021908323" x="7478217.421980003" y="1.1345318438592989E7" >
		</node>
		<node id="3033904482" x="7478498.476495782" y="1.1345131333226219E7" >
		</node>
		<node id="3216804790" x="7478440.555341337" y="1.1345178148874793E7" >
		</node>
		<node id="3780934120" x="7475057.146867326" y="1.1341332352732118E7" >
		</node>
		<node id="3999273898" x="7479133.430336533" y="1.134529238389402E7" >
		</node>
		<node id="4004597816" x="7478978.533001285" y="1.134493263166547E7" >
		</node>
		<node id="4004620069" x="7478507.137153586" y="1.1345209269512273E7" >
		</node>
		<node id="4004620073" x="7478485.771086498" y="1.1345180177911049E7" >
		</node>
		<node id="4004620076" x="7478469.143538578" y="1.134519883676298E7" >
		</node>
		<node id="4004620077" x="7478506.369340304" y="1.1345189515703805E7" >
		</node>
		<node id="4004620078" x="7478481.656723277" y="1.134518135378004E7" >
		</node>
		<node id="4004620080" x="7478500.983167726" y="1.1345183683081431E7" >
		</node>
		<node id="4004620083" x="7478476.044702504" y="1.134521533072628E7" >
		</node>
		<node id="4004620085" x="7478469.912662647" y="1.1345194403087653E7" >
		</node>
		<node id="4004621090" x="7478197.012885501" y="1.1345183059154723E7" >
		</node>
		<node id="4004630079" x="7478539.266711597" y="1.1345200718493074E7" >
		</node>
		<node id="4156039473" x="7478869.745287443" y="1.1344856692831306E7" >
		</node>
		<node id="4156039475" x="7478842.837618883" y="1.1344862150045726E7" >
		</node>
		<node id="5507135508" x="7478831.169290522" y="1.1345399263445143E7" >
		</node>
		<node id="5693657962" x="7478977.702638514" y="1.1345263952525634E7" >
		</node>
		<node id="618043673" x="7478190.729980593" y="1.1344639348351434E7" >
		</node>
		<node id="618043747" x="7478723.8668536125" y="1.1344589949389296E7" >
		</node>
		<node id="618073247" x="7478270.102216949" y="1.1344893609733326E7" >
		</node>
		<node id="618073249" x="7478444.254560868" y="1.1344721662894318E7" >
		</node>
		<node id="618073257" x="7478853.857964052" y="1.1344757624854147E7" >
		</node>
		<node id="618073263" x="7478875.556149581" y="1.134490030374681E7" >
		</node>
		<node id="618073265" x="7478434.861967448" y="1.134480396118758E7" >
		</node>
		<node id="6262067727" x="7478297.324144003" y="1.134497339060846E7" >
		</node>
		<node id="6324979463" x="7478425.601741399" y="1.134521308143088E7" >
		</node>
		<node id="8936981944" x="7478332.0840619765" y="1.134546702717601E7" >
		</node>
		<node id="8936981951" x="7478644.159518663" y="1.1345297852241298E7" >
		</node>
		<node id="8936981953" x="7478663.40701714" y="1.1345221328836244E7" >
		</node>
		<node id="8936981962" x="7478522.528391976" y="1.1345268293168077E7" >
		</node>
		<node id="8936981964" x="7478571.439914163" y="1.1345298981469428E7" >
		</node>
		<node id="8936981968" x="7478601.07724008" y="1.1345469740612645E7" >
		</node>
		<node id="8939407003" x="7478977.9021033235" y="1.1345223968472676E7" >
		</node>
		<node id="8939407009" x="7478897.183368534" y="1.1345150378641982E7" >
		</node>
		<node id="8939407010" x="7478892.180588897" y="1.1345252761387283E7" >
		</node>
		<node id="896200883" x="7478563.915620133" y="1.1346190901458107E7" >
		</node>
		<node id="9201280520" x="7478472.073158803" y="1.134521062779475E7" >
		</node>
	</nodes>

<!-- ====================================================================== -->

	<links capperiod="01:00:00" effectivecellsize="7.5" effectivelanewidth="3.75">
		<link id="1" from="6262067727" to="2315631896" length="66.14204359065026" freespeed="6.944444444444445" capacity="600.0" permlanes="1.0" oneway="1" modes="car" >
			<attributes>
				<attribute name="origid" class="java.lang.String">668689819</attribute>
				<attribute name="type" class="java.lang.String">tertiary</attribute>
			</attributes>
		</link>
		<link id="10" from="257926216" to="8939407010" length="11.587378163125999" freespeed="13.88888888888889" capacity="2000.0" permlanes="1.0" oneway="1" modes="car" >
			<attributes>
				<attribute name="origid" class="java.lang.String">23802733</attribute>
				<attribute name="type" class="java.lang.String">trunk</attribute>
			</attributes>
		</link>
		<link id="11" from="8939407010" to="257926216" length="11.587378163125999" freespeed="13.88888888888889" capacity="2000.0" permlanes="1.0" oneway="1" modes="car" >
			<attributes>
				<attribute name="origid" class="java.lang.String">23802733</attribute>
				<attribute name="type" class="java.lang.String">trunk</attribute>
			</attributes>
		</link>
		<link id="12" from="8939407010" to="5693657962" length="86.26304582857593" freespeed="13.88888888888889" capacity="2000.0" permlanes="1.0" oneway="1" modes="car" >
			<attributes>
				<attribute name="origid" class="java.lang.String">23802733</attribute>
				<attribute name="type" class="java.lang.String">trunk</attribute>
			</attributes>
		</link>
		<link id="13" from="5693657962" to="8939407010" length="86.26304582857593" freespeed="13.88888888888889" capacity="2000.0" permlanes="1.0" oneway="1" modes="car" >
			<attributes>
				<attribute name="origid" class="java.lang.String">23802733</attribute>
				<attribute name="type" class="java.lang.String">trunk</attribute>
			</attributes>
		</link>
		<link id="14" from="8939407010" to="8939407009" length="102.50489978139271" freespeed="8.333333333333334" capacity="600.0" permlanes="1.0" oneway="1" modes="car" >
			<attributes>
				<attribute name="origid" class="java.lang.String">399191308</attribute>
				<attribute name="type" class="java.lang.String">residential</attribute>
			</attributes>
		</link>
		<link id="15" from="8939407009" to="8939407010" length="102.50489978139271" freespeed="8.333333333333334" capacity="600.0" permlanes="1.0" oneway="1" modes="car" >
			<attributes>
				<attribute name="origid" class="java.lang.String">399191308</attribute>
				<attribute name="type" class="java.lang.String">residential</attribute>
			</attributes>
		</link>
		<link id="16" from="618073247" to="2315631896" length="46.416686912937905" freespeed="11.11111111111111" capacity="600.0" permlanes="1.0" oneway="1" modes="car" >
			<attributes>
				<attribute name="origid" class="java.lang.String">668689820</attribute>
				<attribute name="type" class="java.lang.String">tertiary</attribute>
			</attributes>
		</link>
		<link id="17" from="4004597816" to="618073263" length="108.16196299581551" freespeed="11.11111111111111" capacity="600.0" permlanes="1.0" oneway="1" modes="car" >
			<attributes>
				<attribute name="origid" class="java.lang.String">706229393</attribute>
				<attribute name="type" class="java.lang.String">tertiary</attribute>
			</attributes>
		</link>
		<link id="18" from="618073263" to="4004597816" length="108.16196299581551" freespeed="11.11111111111111" capacity="600.0" permlanes="1.0" oneway="1" modes="car" >
			<attributes>
				<attribute name="origid" class="java.lang.String">706229393</attribute>
				<attribute name="type" class="java.lang.String">tertiary</attribute>
			</attributes>
		</link>
		<link id="19" from="618073257" to="4156039473" length="100.40316353856687" freespeed="11.11111111111111" capacity="600.0" permlanes="1.0" oneway="1" modes="car" >
			<attributes>
				<attribute name="origid" class="java.lang.String">401130338</attribute>
				<attribute name="type" class="java.lang.String">tertiary</attribute>
			</attributes>
		</link>
		<link id="2" from="1837354773" to="618073265" length="199.497804699305" freespeed="13.88888888888889" capacity="4000.0" permlanes="2.0" oneway="1" modes="car" >
			<attributes>
				<attribute name="origid" class="java.lang.String">172893135</attribute>
				<attribute name="type" class="java.lang.String">trunk</attribute>
			</attributes>
		</link>
		<link id="20" from="4156039473" to="618073257" length="100.40316353856687" freespeed="11.11111111111111" capacity="600.0" permlanes="1.0" oneway="1" modes="car" >
			<attributes>
				<attribute name="origid" class="java.lang.String">401130338</attribute>
				<attribute name="type" class="java.lang.String">tertiary</attribute>
			</attributes>
		</link>
		<link id="21" from="4156039473" to="618073263" length="43.99634155163911" freespeed="11.11111111111111" capacity="600.0" permlanes="1.0" oneway="1" modes="car" >
			<attributes>
				<attribute name="origid" class="java.lang.String">401130338</attribute>
				<attribute name="type" class="java.lang.String">tertiary</attribute>
			</attributes>
		</link>
		<link id="22" from="618073263" to="4156039473" length="43.99634155163911" freespeed="11.11111111111111" capacity="600.0" permlanes="1.0" oneway="1" modes="car" >
			<attributes>
				<attribute name="origid" class="java.lang.String">401130338</attribute>
				<attribute name="type" class="java.lang.String">tertiary</attribute>
			</attributes>
		</link>
		<link id="23" from="3216804790" to="4004620085" length="33.55669456589792" freespeed="19.444444444444443" capacity="4000.0" permlanes="2.0" oneway="1" modes="car" >
			<attributes>
				<attribute name="origid" class="java.lang.String">397686399</attribute>
				<attribute name="type" class="java.lang.String">trunk</attribute>
			</attributes>
		</link>
		<link id="24" from="4004630079" to="8936981953" length="125.83958719623374" freespeed="16.666666666666668" capacity="4000.0" permlanes="2.0" oneway="1" modes="car" >
			<attributes>
				<attribute name="origid" class="java.lang.String">101876190</attribute>
				<attribute name="type" class="java.lang.String">trunk</attribute>
			</attributes>
		</link>
		<link id="25" from="8936981953" to="257926216" length="219.33602324157278" freespeed="16.666666666666668" capacity="4000.0" permlanes="2.0" oneway="1" modes="car" >
			<attributes>
				<attribute name="origid" class="java.lang.String">101876190</attribute>
				<attribute name="type" class="java.lang.String">trunk</attribute>
			</attributes>
		</link>
		<link id="26" from="1980551964" to="1837320459" length="273.5135544404011" freespeed="11.11111111111111" capacity="600.0" permlanes="1.0" oneway="1" modes="car" >
			<attributes>
				<attribute name="origid" class="java.lang.String">172889216</attribute>
				<attribute name="type" class="java.lang.String">residential</attribute>
			</attributes>
		</link>
		<link id="27" from="1837320459" to="1980551964" length="273.5135544404011" freespeed="11.11111111111111" capacity="600.0" permlanes="1.0" oneway="1" modes="car" >
			<attributes>
				<attribute name="origid" class="java.lang.String">172889216</attribute>
				<attribute name="type" class="java.lang.String">residential</attribute>
			</attributes>
		</link>
		<link id="28" from="1837354773" to="1694529787" length="128.58332562984896" freespeed="13.88888888888889" capacity="1200.0" permlanes="2.0" oneway="1" modes="car" >
			<attributes>
				<attribute name="origid" class="java.lang.String">668981515</attribute>
				<attribute name="type" class="java.lang.String">tertiary</attribute>
			</attributes>
		</link>
		<link id="29" from="1694529787" to="3033904482" length="67.67667382092863" freespeed="13.88888888888889" capacity="1200.0" permlanes="2.0" oneway="1" modes="car" >
			<attributes>
				<attribute name="origid" class="java.lang.String">668981515</attribute>
				<attribute name="type" class="java.lang.String">tertiary</attribute>
			</attributes>
		</link>
		<link id="3" from="3033904482" to="4004620073" length="50.47011611655109" freespeed="13.88888888888889" capacity="600.0" permlanes="1.0" oneway="1" modes="car" >
			<attributes>
				<attribute name="origid" class="java.lang.String">668689818</attribute>
				<attribute name="type" class="java.lang.String">tertiary</attribute>
			</attributes>
		</link>
		<link id="30" from="2315631896" to="618073265" length="163.1647146315808" freespeed="11.11111111111111" capacity="600.0" permlanes="1.0" oneway="1" modes="car" >
			<attributes>
				<attribute name="origid" class="java.lang.String">668981514</attribute>
				<attribute name="type" class="java.lang.String">tertiary</attribute>
			</attributes>
		</link>
		<link id="31" from="5693657962" to="8939407003" length="39.98704070884449" freespeed="13.88888888888889" capacity="4000.0" permlanes="2.0" oneway="1" modes="car" >
			<attributes>
				<attribute name="origid" class="java.lang.String">414461282</attribute>
				<attribute name="type" class="java.lang.String">trunk</attribute>
			</attributes>
		</link>
		<link id="32" from="8939407003" to="4004597816" length="291.6112445559621" freespeed="13.88888888888889" capacity="4000.0" permlanes="2.0" oneway="1" modes="car" >
			<attributes>
				<attribute name="origid" class="java.lang.String">414461282</attribute>
				<attribute name="type" class="java.lang.String">trunk</attribute>
			</attributes>
		</link>
		<link id="33" from="618073265" to="618073249" length="82.85032306255764" freespeed="11.11111111111111" capacity="4000.0" permlanes="2.0" oneway="1" modes="car" >
			<attributes>
				<attribute name="origid" class="java.lang.String">668981513</attribute>
				<attribute name="type" class="java.lang.String">trunk</attribute>
			</attributes>
		</link>
		<link id="34" from="8936981944" to="2375441071" length="248.88640039115586" freespeed="11.11111111111111" capacity="600.0" permlanes="1.0" oneway="1" modes="car" >
			<attributes>
				<attribute name="origid" class="java.lang.String">23802867</attribute>
				<attribute name="type" class="java.lang.String">tertiary</attribute>
			</attributes>
		</link>
		<link id="35" from="9201280520" to="4004620083" length="6.155544195893976" freespeed="19.444444444444443" capacity="4000.0" permlanes="2.0" oneway="1" modes="car" >
			<attributes>
				<attribute name="origid" class="java.lang.String">666039786</attribute>
				<attribute name="type" class="java.lang.String">trunk</attribute>
			</attributes>
		</link>
		<link id="36" from="4004620083" to="4004620069" length="36.3576869464583" freespeed="19.444444444444443" capacity="4000.0" permlanes="2.0" oneway="1" modes="car" >
			<attributes>
				<attribute name="origid" class="java.lang.String">666039786</attribute>
				<attribute name="type" class="java.lang.String">trunk</attribute>
			</attributes>
		</link>
		<link id="37" from="4004620069" to="4004620077" length="20.556525329052725" freespeed="19.444444444444443" capacity="4000.0" permlanes="2.0" oneway="1" modes="car" >
			<attributes>
				<attribute name="origid" class="java.lang.String">666039786</attribute>
				<attribute name="type" class="java.lang.String">trunk</attribute>
			</attributes>
		</link>
		<link id="38" from="4004620077" to="4004620080" length="7.9772752693405815" freespeed="19.444444444444443" capacity="4000.0" permlanes="2.0" oneway="1" modes="car" >
			<attributes>
				<attribute name="origid" class="java.lang.String">666039786</attribute>
				<attribute name="type" class="java.lang.String">trunk</attribute>
			</attributes>
		</link>
		<link id="39" from="4004620080" to="4004620073" length="15.984221741184356" freespeed="19.444444444444443" capacity="4000.0" permlanes="2.0" oneway="1" modes="car" >
			<attributes>
				<attribute name="origid" class="java.lang.String">666039786</attribute>
				<attribute name="type" class="java.lang.String">trunk</attribute>
			</attributes>
		</link>
		<link id="4" from="4004621090" to="264552369" length="91.4693727769055" freespeed="16.666666666666668" capacity="2000.0" permlanes="1.0" oneway="1" modes="car" >
			<attributes>
				<attribute name="origid" class="java.lang.String">23802729</attribute>
				<attribute name="type" class="java.lang.String">trunk</attribute>
			</attributes>
		</link>
		<link id="40" from="4004620073" to="4004620078" length="4.279094834637606" freespeed="19.444444444444443" capacity="4000.0" permlanes="2.0" oneway="1" modes="car" >
			<attributes>
				<attribute name="origid" class="java.lang.String">666039786</attribute>
				<attribute name="type" class="java.lang.String">trunk</attribute>
			</attributes>
		</link>
		<link id="41" from="4004620078" to="4004620085" length="18.09535538077677" freespeed="19.444444444444443" capacity="4000.0" permlanes="2.0" oneway="1" modes="car" >
			<attributes>
				<attribute name="origid" class="java.lang.String">666039786</attribute>
				<attribute name="type" class="java.lang.String">trunk</attribute>
			</attributes>
		</link>
		<link id="42" from="4004620085" to="4004620076" length="4.499892080090213" freespeed="19.444444444444443" capacity="4000.0" permlanes="2.0" oneway="1" modes="car" >
			<attributes>
				<attribute name="origid" class="java.lang.String">666039786</attribute>
				<attribute name="type" class="java.lang.String">trunk</attribute>
			</attributes>
		</link>
		<link id="43" from="4004620076" to="9201280520" length="12.294301657243679" freespeed="19.444444444444443" capacity="4000.0" permlanes="2.0" oneway="1" modes="car" >
			<attributes>
				<attribute name="origid" class="java.lang.String">666039786</attribute>
				<attribute name="type" class="java.lang.String">trunk</attribute>
			</attributes>
		</link>
		<link id="44" from="4004620077" to="4004630079" length="34.752547034811826" freespeed="16.666666666666668" capacity="2000.0" permlanes="1.0" oneway="1" modes="car" >
			<attributes>
				<attribute name="origid" class="java.lang.String">958097027</attribute>
				<attribute name="type" class="java.lang.String">trunk</attribute>
			</attributes>
		</link>
		<link id="45" from="3033904482" to="4004620080" length="52.40984268572056" freespeed="13.88888888888889" capacity="600.0" permlanes="1.0" oneway="1" modes="car" >
			<attributes>
				<attribute name="origid" class="java.lang.String">958097026</attribute>
				<attribute name="type" class="java.lang.String">tertiary</attribute>
			</attributes>
		</link>
		<link id="46" from="8936981951" to="5507135508" length="243.89928706852243" freespeed="8.333333333333334" capacity="600.0" permlanes="1.0" oneway="1" modes="car" >
			<attributes>
				<attribute name="origid" class="java.lang.String">172901716</attribute>
				<attribute name="type" class="java.lang.String">residential</attribute>
			</attributes>
		</link>
		<link id="47" from="5507135508" to="8936981951" length="243.89928706852243" freespeed="8.333333333333334" capacity="600.0" permlanes="1.0" oneway="1" modes="car" >
			<attributes>
				<attribute name="origid" class="java.lang.String">172901716</attribute>
				<attribute name="type" class="java.lang.String">residential</attribute>
			</attributes>
		</link>
		<link id="48" from="4156039473" to="4156039475" length="32.90786274037774" freespeed="6.944444444444445" capacity="600.0" permlanes="1.0" oneway="1" modes="car" >
			<attributes>
				<attribute name="origid" class="java.lang.String">414461288</attribute>
				<attribute name="type" class="java.lang.String">tertiary_link</attribute>
			</attributes>
		</link>
		<link id="49" from="2078304669" to="8936981962" length="77.9109902449107" freespeed="8.333333333333334" capacity="600.0" permlanes="1.0" oneway="1" modes="car" >
			<attributes>
				<attribute name="origid" class="java.lang.String">172901715</attribute>
				<attribute name="type" class="java.lang.String">residential</attribute>
			</attributes>
		</link>
		<link id="5" from="264552369" to="4004621090" length="91.4693727769055" freespeed="16.666666666666668" capacity="2000.0" permlanes="1.0" oneway="1" modes="car" >
			<attributes>
				<attribute name="origid" class="java.lang.String">23802729</attribute>
				<attribute name="type" class="java.lang.String">trunk</attribute>
			</attributes>
		</link>
		<link id="50" from="8936981962" to="2078304669" length="77.9109902449107" freespeed="8.333333333333334" capacity="600.0" permlanes="1.0" oneway="1" modes="car" >
			<attributes>
				<attribute name="origid" class="java.lang.String">172901715</attribute>
				<attribute name="type" class="java.lang.String">residential</attribute>
			</attributes>
		</link>
		<link id="51" from="8936981962" to="4004630079" length="69.61686609952321" freespeed="8.333333333333334" capacity="600.0" permlanes="1.0" oneway="1" modes="car" >
			<attributes>
				<attribute name="origid" class="java.lang.String">172901715</attribute>
				<attribute name="type" class="java.lang.String">residential</attribute>
			</attributes>
		</link>
		<link id="52" from="4004630079" to="8936981962" length="69.61686609952321" freespeed="8.333333333333334" capacity="600.0" permlanes="1.0" oneway="1" modes="car" >
			<attributes>
				<attribute name="origid" class="java.lang.String">172901715</attribute>
				<attribute name="type" class="java.lang.String">residential</attribute>
			</attributes>
		</link>
		<link id="53" from="4004621090" to="3021908323" length="139.437160648506" freespeed="13.88888888888889" capacity="1000.0" permlanes="1.0" oneway="1" modes="car" >
			<attributes>
				<attribute name="origid" class="java.lang.String">23802869</attribute>
				<attribute name="type" class="java.lang.String">secondary</attribute>
			</attributes>
		</link>
		<link id="54" from="3021908323" to="4004621090" length="139.437160648506" freespeed="13.88888888888889" capacity="1000.0" permlanes="1.0" oneway="1" modes="car" >
			<attributes>
				<attribute name="origid" class="java.lang.String">23802869</attribute>
				<attribute name="type" class="java.lang.String">secondary</attribute>
			</attributes>
		</link>
		<link id="55" from="8936981953" to="8936981951" length="78.90689272025206" freespeed="13.88888888888889" capacity="4000.0" permlanes="2.0" oneway="1" modes="car" >
			<attributes>
				<attribute name="origid" class="java.lang.String">23802868</attribute>
				<attribute name="type" class="java.lang.String">trunk</attribute>
			</attributes>
		</link>
		<link id="56" from="8936981951" to="8936981968" length="177.21790181264976" freespeed="13.88888888888889" capacity="4000.0" permlanes="2.0" oneway="1" modes="car" >
			<attributes>
				<attribute name="origid" class="java.lang.String">23802868</attribute>
				<attribute name="type" class="java.lang.String">trunk</attribute>
			</attributes>
		</link>
		<link id="57" from="4004620069" to="4004630079" length="33.247983808412855" freespeed="16.666666666666668" capacity="2000.0" permlanes="1.0" oneway="1" modes="car" >
			<attributes>
				<attribute name="origid" class="java.lang.String">958097028</attribute>
				<attribute name="type" class="java.lang.String">trunk</attribute>
			</attributes>
		</link>
		<link id="58" from="1694529734" to="2375441070" length="48.602050517121086" freespeed="11.11111111111111" capacity="600.0" permlanes="1.0" oneway="1" modes="car" >
			<attributes>
				<attribute name="origid" class="java.lang.String">228885185</attribute>
				<attribute name="type" class="java.lang.String">tertiary</attribute>
			</attributes>
		</link>
		<link id="59" from="2375441070" to="2078304672" length="155.93271889194597" freespeed="11.11111111111111" capacity="600.0" permlanes="1.0" oneway="1" modes="car" >
			<attributes>
				<attribute name="origid" class="java.lang.String">157241140</attribute>
				<attribute name="type" class="java.lang.String">tertiary</attribute>
			</attributes>
		</link>
		<link id="6" from="8936981962" to="8936981964" length="71.30809951415519" freespeed="8.333333333333334" capacity="600.0" permlanes="1.0" oneway="1" modes="car" >
			<attributes>
				<attribute name="origid" class="java.lang.String">172901709</attribute>
				<attribute name="type" class="java.lang.String">residential</attribute>
			</attributes>
		</link>
		<link id="60" from="2375441071" to="6324979463" length="89.51078771387095" freespeed="16.666666666666668" capacity="2000.0" permlanes="1.0" oneway="1" modes="car" >
			<attributes>
				<attribute name="origid" class="java.lang.String">228885129</attribute>
				<attribute name="type" class="java.lang.String">trunk</attribute>
			</attributes>
		</link>
		<link id="61" from="6324979463" to="2375441071" length="89.51078771387095" freespeed="16.666666666666668" capacity="2000.0" permlanes="1.0" oneway="1" modes="car" >
			<attributes>
				<attribute name="origid" class="java.lang.String">228885129</attribute>
				<attribute name="type" class="java.lang.String">trunk</attribute>
			</attributes>
		</link>
		<link id="62" from="8939407003" to="1694529787" length="668.0126884180663" freespeed="13.88888888888889" capacity="600.0" permlanes="1.0" oneway="1" modes="car" >
			<attributes>
				<attribute name="origid" class="java.lang.String">401149639</attribute>
				<attribute name="type" class="java.lang.String">tertiary</attribute>
			</attributes>
		</link>
		<link id="63" from="4004597816" to="257926316" length="2577.7083837887544" freespeed="13.88888888888889" capacity="2000.0" permlanes="1.0" oneway="1" modes="car" >
			<attributes>
				<attribute name="origid" class="java.lang.String">415328750</attribute>
				<attribute name="type" class="java.lang.String">trunk</attribute>
			</attributes>
		</link>
		<link id="64" from="257926316" to="4004597816" length="2577.7083837887544" freespeed="13.88888888888889" capacity="2000.0" permlanes="1.0" oneway="1" modes="car" >
			<attributes>
				<attribute name="origid" class="java.lang.String">415328750</attribute>
				<attribute name="type" class="java.lang.String">trunk</attribute>
			</attributes>
		</link>
		<link id="65" from="3216804790" to="1694529734" length="199.68525308902906" freespeed="16.666666666666668" capacity="2000.0" permlanes="1.0" oneway="1" modes="car" >
			<attributes>
				<attribute name="origid" class="java.lang.String">23810971</attribute>
				<attribute name="type" class="java.lang.String">trunk</attribute>
			</attributes>
		</link>
		<link id="66" from="1694529734" to="3216804790" length="199.68525308902906" freespeed="16.666666666666668" capacity="2000.0" permlanes="1.0" oneway="1" modes="car" >
			<attributes>
				<attribute name="origid" class="java.lang.String">23810971</attribute>
				<attribute name="type" class="java.lang.String">trunk</attribute>
			</attributes>
		</link>
		<link id="67" from="1694529734" to="6262067727" length="63.39595912185217" freespeed="16.666666666666668" capacity="2000.0" permlanes="1.0" oneway="1" modes="car" >
			<attributes>
				<attribute name="origid" class="java.lang.String">23810971</attribute>
				<attribute name="type" class="java.lang.String">trunk</attribute>
			</attributes>
		</link>
		<link id="68" from="6262067727" to="1694529734" length="63.39595912185217" freespeed="16.666666666666668" capacity="2000.0" permlanes="1.0" oneway="1" modes="car" >
			<attributes>
				<attribute name="origid" class="java.lang.String">23810971</attribute>
				<attribute name="type" class="java.lang.String">trunk</attribute>
			</attributes>
		</link>
		<link id="69" from="6262067727" to="618073247" length="84.29722029574216" freespeed="16.666666666666668" capacity="2000.0" permlanes="1.0" oneway="1" modes="car" >
			<attributes>
				<attribute name="origid" class="java.lang.String">23810971</attribute>
				<attribute name="type" class="java.lang.String">trunk</attribute>
			</attributes>
		</link>
		<link id="7" from="8936981964" to="8936981962" length="71.30809951415519" freespeed="8.333333333333334" capacity="600.0" permlanes="1.0" oneway="1" modes="car" >
			<attributes>
				<attribute name="origid" class="java.lang.String">172901709</attribute>
				<attribute name="type" class="java.lang.String">residential</attribute>
			</attributes>
		</link>
		<link id="70" from="618073247" to="6262067727" length="84.29722029574216" freespeed="16.666666666666668" capacity="2000.0" permlanes="1.0" oneway="1" modes="car" >
			<attributes>
				<attribute name="origid" class="java.lang.String">23810971</attribute>
				<attribute name="type" class="java.lang.String">trunk</attribute>
			</attributes>
		</link>
		<link id="71" from="618073263" to="4156039475" length="50.87103226985954" freespeed="11.11111111111111" capacity="600.0" permlanes="1.0" oneway="1" modes="car" >
			<attributes>
				<attribute name="origid" class="java.lang.String">415328753</attribute>
				<attribute name="type" class="java.lang.String">tertiary</attribute>
			</attributes>
		</link>
		<link id="72" from="4156039475" to="618073263" length="50.87103226985954" freespeed="11.11111111111111" capacity="600.0" permlanes="1.0" oneway="1" modes="car" >
			<attributes>
				<attribute name="origid" class="java.lang.String">415328753</attribute>
				<attribute name="type" class="java.lang.String">tertiary</attribute>
			</attributes>
		</link>
		<link id="73" from="4156039475" to="1980551964" length="245.2756822281427" freespeed="11.11111111111111" capacity="600.0" permlanes="1.0" oneway="1" modes="car" >
			<attributes>