<?xml version="1.0" encoding="UTF-8"?>
<!DOCTYPE network SYSTEM "http://www.matsim.org/files/dtd/network_v2.dtd">
<network>

<!-- ====================================================================== -->

	<nodes>
		<node id="1176053566" x="7478497.298943955" y="1.1344639044389699E7" >
		</node>
		<node id="1694488877" x="7478372.495691246" y="1.1344628480657354E7" >
		</node>
		<node id="1694488879" x="7478412.103659011" y="1.1344625456822682E7" >
		</node>
		<node id="1694529734" x="7478319.777069907" y="1.1345032677189423E7" >
		</node>
		<node id="1694529759" x="7477985.2511459915" y="1.1344976859536763E7" >
		</node>
		<node id="1694529787" x="7478514.436676846" y="1.1345065565416465E7" >
		</node>
		<node id="1837320459" x="7478785.607445967" y="1.1344902995817332E7" >
		</node>
		<node id="1837354773" x="7478544.618257838" y="1.1344941094359925E7" >
		</node>
		<node id="1837428756" x="7478608.891027781" y="1.1345441604840536E7" >
		</node>
		<node id="1837428844" x="7479239.9451841805" y="1.1345484470445925E7" >
		</node>
		<node id="1980535815" x="7479210.019385578" y="1.1345649106480742E7" >
		</node>
		<node id="1980535816" x="7479099.802921252" y="1.1345367258131668E7" >
		</node>
		<node id="1980551964" x="7478754.187013786" y="1.1344633604173604E7" >
		</node>
		<node id="1980551966" x="7478277.586584772" y="1.1344291455645103E7" >
		</node>
		<node id="1980551980" x="7478478.83474013" y="1.1344463825035585E7" >
		</node>
		<node id="2078304669" x="7478496.404054087" y="1.1345341322018424E7" >
		</node>
		<node id="2078304672" x="7478149.619776268" y="1.1345144414875288E7" >
		</node>
		<node id="2093035861" x="7478111.9816858005" y="1.1344586394931678E7" >
		</node>
		<node id="2315631896" x="7478310.908801167" y="1.1344908736502796E7" >
		</node>
		<node id="2375441070" x="7478276.000741194" y="1.134505358633126E7" >
		</node>
		<node id="2375441071" x="7478336.236021408" y="1.1345218175467363E7" >
		</node>
		<node id="257926216" x="7478880.716891843" y="1.1345251072902003E7" >
		</node>
		<node id="257926221" x="7478314.353765915" y="1.1345217616988927E7" >
		</node>
		<node id="257926316" x="7480972.911140972" y="1.1344467586134326E7" >
		</node>
		<node id="257927912" x="7478800.204103191" y="1.1346002246239817E7" >
		</node>
		<node id="257927913" x="7479043.95075843" y="1.1345479950780023E7" >
		</node>
		<node id="257927914" x="7478805.054287319" y="1.1345473004126161E7" >
		</node>
		<node id="257927933" x="7478227.140159964" y="1.1346028841069367E7" >
		</node>
		<node id="264552369" x="7478281.976352423" y="1.1345214302735187E7" >
		</node>
		<node id="3012657751" x="7478196.0531282555" y="1.1344543564273726E7" >
		</node>
		<node id="3021908323" x="7478217.421980003" y="1.1345318438592989E7" >
		</node>
		<node id="3033895841" x="7478458.190757712" y="1.1344662670715101E7" >
		</node>
		<node id="3033904482" x="7478498.476495782" y="1.1345131333226219E7" >
		</node>
		<node id="3216804790" x="7478440.555341337" y="1.1345178148874793E7" >
		</node>
		<node id="35436482" x="7478010.170302808" y="1.1345010842259556E7" >
		</node>
		<node id="3780934120" x="7475057.146867326" y="1.1341332352732118E7" >
		</node>
		<node id="3810935736" x="7477250.050580109" y="1.1343345694603156E7" >
		</node>
		<node id="3810950080" x="7477552.620831657" y="1.1344928817234583E7" >
		</node>
		<node id="3999273898" x="7479133.430336533" y="1.134529238389402E7" >
		</node>
		<node id="4004597816" x="7478978.533001285" y="1.134493263166547E7" >
		</node>
		<node id="4004603909" x="7479479.565051038" y="1.1344770660968691E7" >
		</node>
		<node id="4004603938" x="7479733.908184478" y="1.1344662761905119E7" >
		</node>
		<node id="4004620069" x="7478507.137153586" y="1.1345209269512273E7" >
		</node>
		<node id="4004620073" x="7478485.771086498" y="1.1345180177911049E7" >
		</node>
		<node id="4004620076" x="7478469.143538578" y="1.134519883676298E7" >
		</node>
		<node id="4004620077" x="7478506.369340304" y="1.1345189515703805E7" >
		</node>
		<node id="4004620078" x="7478481.656723277" y="1.134518135378004E7" >
		</node>
		<node id="4004620080" x="7478500.983167726" y="1.1345183683081431E7" >
		</node>
		<node id="4004620083" x="7478476.044702504" y="1.134521533072628E7" >
		</node>
		<node id="4004620085" x="7478469.912662647" y="1.1345194403087653E7" >
		</node>
		<node id="4004621090" x="7478197.012885501" y="1.1345183059154723E7" >
		</node>
		<node id="4004630079" x="7478539.266711597" y="1.1345200718493074E7" >
		</node>
		<node id="4156039473" x="7478869.745287443" y="1.1344856692831306E7" >
		</node>
		<node id="4156039475" x="7478842.837618883" y="1.1344862150045726E7" >
		</node>
		<node id="4180031215" x="7478441.57760687" y="1.1344627521253882E7" >
		</node>
		<node id="5504960591" x="7478090.171199444" y="1.134517319201316E7" >
		</node>
		<node id="5507135508" x="7478831.169290522" y="1.1345399263445143E7" >
		</node>
		<node id="5693657962" x="7478977.702638514" y="1.1345263952525634E7" >
		</node>
		<node id="618043670" x="7478206.657289682" y="1.1344480443585118E7" >
		</node>
		<node id="618043673" x="7478190.729980593" y="1.1344639348351434E7" >
		</node>
		<node id="618043679" x="7478432.590106647" y="1.134454595769605E7" >
		</node>
		<node id="618043741" x="7478145.900237442" y="1.1345453380550649E7" >
		</node>
		<node id="618043745" x="7478209.08633249" y="1.1345285785992451E7" >
		</node>
		<node id="618043747" x="7478723.8668536125" y="1.1344589949389296E7" >
		</node>
		<node id="618043757" x="7478450.278232617" y="1.1344632565282343E7" >
		</node>
		<node id="618043760" x="7478446.905599361" y="1.1344630141075676E7" >
		</node>
		<node id="618073229" x="7479358.056029064" y="1.134448565360751E7" >
		</node>
		<node id="618073247" x="7478270.102216949" y="1.1344893609733326E7" >
		</node>
		<node id="618073249" x="7478444.254560868" y="1.1344721662894318E7" >
		</node>
		<node id="618073257" x="7478853.857964052" y="1.1344757624854147E7" >
		</node>
		<node id="618073263" x="7478875.556149581" y="1.134490030374681E7" >
		</node>
		<node id="618073265" x="7478434.861967448" y="1.134480396118758E7" >
		</node>
		<node id="6262067727" x="7478297.324144003" y="1.134497339060846E7" >
		</node>
		<node id="6293658228" x="7477509.885115293" y="1.1343941565180793E7" >
		</node>
		<node id="6324979463" x="7478425.601741399" y="1.134521308143088E7" >
		</node>
		<node id="7094485192" x="7478192.756564353" y="1.1344649033078244E7" >
		</node>
		<node id="7094485197" x="7478127.41563931" y="1.1344594795430344E7" >
		</node>
		<node id="7572625785" x="7479331.390961422" y="1.134462955099687E7" >
		</node>
		<node id="7572625839" x="7479371.450614228" y="1.134482870696139E7" >
		</node>
		<node id="8936981944" x="7478332.0840619765" y="1.134546702717601E7" >
		</node>
		<node id="8936981946" x="7478332.714943085" y="1.1345425442317273E7" >
		</node>
		<node id="8936981951" x="7478644.159518663" y="1.1345297852241298E7" >
		</node>
		<node id="8936981953" x="7478663.40701714" y="1.1345221328836244E7" >
		</node>
		<node id="8936981962" x="7478522.528391976" y="1.1345268293168077E7" >
		</node>
		<node id="8936981964" x="7478571.439914163" y="1.1345298981469428E7" >
		</node>
		<node id="8936981965" x="7478543.722795619" y="1.1345347668865293E7" >
		</node>
		<node id="8936981968" x="7478601.07724008" y="1.1345469740612645E7" >
		</node>
		<node id="8936981979" x="7478636.7787071895" y="1.1345326823853552E7" >
		</node>
		<node id="8938887932" x="7478422.22575595" y="1.1345295135749947E7" >
		</node>
		<node id="8938887933" x="7478334.946670952" y="1.1345293724772548E7" >
		</node>
		<node id="8939407003" x="7478977.9021033235" y="1.1345223968472676E7" >
		</node>
		<node id="8939407009" x="7478897.183368534" y="1.1345150378641982E7" >
		</node>
		<node id="8939407010" x="7478892.180588897" y="1.1345252761387283E7" >
		</node>
		<node id="896200883" x="7478563.915620133" y="1.1346190901458107E7" >
		</node>
		<node id="9201280520" x="7478472.073158803" y="1.134521062779475E7" >
		</node>
	</nodes>

<!-- ====================================================================== -->

	<links capperiod="01:00:00" effectivecellsize="7.5" effectivelanewidth="3.75">
		<link id="1" from="1837354773" to="618073265" length="199.497804699305" freespeed="13.88888888888889" capacity="4000.0" permlanes="2.0" oneway="1" modes="car,bicycle" >
			<attributes>
				<attribute name="origid" class="java.lang.String">172893135</attribute>
				<attribute name="type" class="java.lang.String">trunk</attribute>
			</attributes>
		</link>
		<link id="10" from="8936981964" to="8936981962" length="71.30809951415519" freespeed="8.333333333333334" capacity="600.0" permlanes="1.0" oneway="1" modes="car,bicycle" >
			<attributes>
				<attribute name="origid" class="java.lang.String">172901709</attribute>
				<attribute name="type" class="java.lang.String">residential</attribute>
			</attributes>
		</link>
		<link id="100" from="3012657751" to="618043673" length="96.4078396362531" freespeed="16.666666666666668" capacity="4000.0" permlanes="2.0" oneway="1" modes="car,bicycle" >
			<attributes>
				<attribute name="origid" class="java.lang.String">297394690</attribute>
				<attribute name="type" class="java.lang.String">trunk</attribute>
			</attributes>
		</link>
		<link id="101" from="618043673" to="7094485192" length="9.894492160915409" freespeed="16.666666666666668" capacity="8000.0" permlanes="4.0" oneway="1" modes="car,bicycle" >
			<attributes>
				<attribute name="origid" class="java.lang.String">400421728</attribute>
				<attribute name="type" class="java.lang.String">trunk</attribute>
			</attributes>
		</link>
		<link id="102" from="7094485192" to="618073247" length="256.5453427073391" freespeed="16.666666666666668" capacity="8000.0" permlanes="4.0" oneway="1" modes="car,bicycle" >
			<attributes>
				<attribute name="origid" class="java.lang.String">400421728</attribute>
				<attribute name="type" class="java.lang.String">trunk</attribute>
			</attributes>
		</link>
		<link id="103" from="4004621090" to="2078304672" length="61.15134614915752" freespeed="16.666666666666668" capacity="2000.0" permlanes="1.0" oneway="1" modes="car,bicycle" >
			<attributes>
				<attribute name="origid" class="java.lang.String">5131121</attribute>
				<attribute name="type" class="java.lang.String">trunk</attribute>
			</attributes>
		</link>
		<link id="104" from="2078304672" to="4004621090" length="61.15134614915752" freespeed="16.666666666666668" capacity="2000.0" permlanes="1.0" oneway="1" modes="car,bicycle" >
			<attributes>
				<attribute name="origid" class="java.lang.String">5131121</attribute>
				<attribute name="type" class="java.lang.String">trunk</attribute>
			</attributes>
		</link>
		<link id="105" from="2078304672" to="35436482" length="193.90102720229328" freespeed="16.666666666666668" capacity="2000.0" permlanes="1.0" oneway="1" modes="car,bicycle" >
			<attributes>
				<attribute name="origid" class="java.lang.String">5131121</attribute>
				<attribute name="type" class="java.lang.String">trunk</attribute>
			</attributes>
		</link>
		<link id="106" from="35436482" to="2078304672" length="193.90102720229328" freespeed="16.666666666666668" capacity="2000.0" permlanes="1.0" oneway="1" modes="car,bicycle" >
			<attributes>
				<attribute name="origid" class="java.lang.String">5131121</attribute>
				<attribute name="type" class="java.lang.String">trunk</attribute>
			</attributes>
		</link>
		<link id="107" from="35436482" to="1694529759" length="42.152104590752366" freespeed="16.666666666666668" capacity="2000.0" permlanes="1.0" oneway="1" modes="car,bicycle" >
			<attributes>
				<attribute name="origid" class="java.lang.String">5131121</attribute>
				<attribute name="type" class="java.lang.String">trunk</attribute>
			</attributes>
		</link>
		<link id="108" from="1694529759" to="35436482" length="42.152104590752366" freespeed="16.666666666666668" capacity="2000.0" permlanes="1.0" oneway="1" modes="car,bicycle" >
			<attributes>
				<attribute name="origid" class="java.lang.String">5131121</attribute>
				<attribute name="type" class="java.lang.String">trunk</attribute>
			</attributes>
		</link>
		<link id="109" from="1694529759" to="3780934120" length="4701.870840126041" freespeed="16.666666666666668" capacity="2000.0" permlanes="1.0" oneway="1" modes="car,bicycle" >
			<attributes>
				<attribute name="origid" class="java.lang.String">5131121</attribute>
				<attribute name="type" class="java.lang.String">trunk</attribute>
			</attributes>
		</link>
		<link id="11" from="257926216" to="5507135508" length="156.2542859334732" freespeed="13.88888888888889" capacity="600.0" permlanes="1.0" oneway="1" modes="car,bicycle" >
			<attributes>
				<attribute name="origid" class="java.lang.String">23802863</attribute>
				<attribute name="type" class="java.lang.String">tertiary</attribute>
			</attributes>
		</link>
		<link id="110" from="3780934120" to="1694529759" length="4701.870840126041" freespeed="16.666666666666668" capacity="2000.0" permlanes="1.0" oneway="1" modes="car,bicycle" >
			<attributes>
				<attribute name="origid" class="java.lang.String">5131121</attribute>
				<attribute name="type" class="java.lang.String">trunk</attribute>
			</attributes>
		</link>
		<link id="111" from="6262067727" to="2315631896" length="66.14204359065026" freespeed="6.944444444444445" capacity="600.0" permlanes="1.0" oneway="1" modes="car,bicycle" >
			<attributes>
				<attribute name="origid" class="java.lang.String">668689819</attribute>
				<attribute name="type" class="java.lang.String">tertiary</attribute>
			</attributes>
		</link>
		<link id="112" from="3033904482" to="4004620073" length="50.47011611655109" freespeed="13.88888888888889" capacity="600.0" permlanes="1.0" oneway="1" modes="car,bicycle" >
			<attributes>
				<attribute name="origid" class="java.lang.String">668689818</attribute>
				<attribute name="type" class="java.lang.String">tertiary</attribute>
			</attributes>
		</link>
		<link id="113" from="3033895841" to="1176053566" length="46.25088565002778" freespeed="11.11111111111111" capacity="600.0" permlanes="1.0" oneway="1" modes="car,bicycle" >
			<attributes>
				<attribute name="origid" class="java.lang.String">299400989</attribute>
				<attribute name="type" class="java.lang.String">tertiary</attribute>
			</attributes>
		</link>
		<link id="114" from="1694488879" to="3033895841" length="69.69139280967994" freespeed="11.11111111111111" capacity="1500.0" permlanes="1.0" oneway="1" modes="car,bicycle" >
			<attributes>
				<attribute name="origid" class="java.lang.String">299400990</attribute>
				<attribute name="type" class="java.lang.String">trunk_link</attribute>
			</attributes>
		</link>
		<link id="115" from="618043760" to="4180031215" length="5.939610225135272" freespeed="11.11111111111111" capacity="4000.0" permlanes="2.0" oneway="1" modes="car,bicycle" >
			<attributes>
				<attribute name="origid" class="java.lang.String">299400991</attribute>
				<attribute name="type" class="java.lang.String">trunk</attribute>
			</attributes>
		</link>
		<link id="116" from="4180031215" to="1694488879" length="30.01957996680749" freespeed="11.11111111111111" capacity="4000.0" permlanes="2.0" oneway="1" modes="car,bicycle" >
			<attributes>
				<attribute name="origid" class="java.lang.String">299400991</attribute>
				<attribute name="type" class="java.lang.String">trunk</attribute>
			</attributes>
		</link>
		<link id="117" from="8939407010" to="8939407009" length="102.50489978139271" freespeed="8.333333333333334" capacity="600.0" permlanes="1.0" oneway="1" modes="car,bicycle" >
			<attributes>
				<attribute name="origid" class="java.lang.String">399191308</attribute>
				<attribute name="type" class="java.lang.String">residential</attribute>
			</attributes>
		</link>
		<link id="118" from="8939407009" to="8939407010" length="102.50489978139271" freespeed="8.333333333333334" capacity="600.0" permlanes="1.0" oneway="1" modes="car,bicycle" >
			<attributes>
				<attribute name="origid" class="java.lang.String">399191308</attribute>
				<attribute name="type" class="java.lang.String">residential</attribute>
			</attributes>
		</link>
		<link id="119" from="618073247" to="2315631896" length="46.416686912937905" freespeed="11.11111111111111" capacity="600.0" permlanes="1.0" oneway="1" modes="car,bicycle" >
			<attributes>
				<attribute name="origid" class="java.lang.String">668689820</attribute>
				<attribute name="type" class="java.lang.String">tertiary</attribute>
			</attributes>
		</link>
		<link id="12" from="5507135508" to="257927914" length="78.2436106619956" freespeed="13.88888888888889" capacity="600.0" permlanes="1.0" oneway="1" modes="car,bicycle" >
			<attributes>
				<attribute name="origid" class="java.lang.String">23802863</attribute>
				<attribute name="type" class="java.lang.String">tertiary</attribute>
			</attributes>
		</link>
		<link id="120" from="618043673" to="7094485197" length="77.60795991123065" freespeed="13.88888888888889" capacity="600.0" permlanes="1.0" oneway="1" modes="car,bicycle" >
			<attributes>
				<attribute name="origid" class="java.lang.String">200292027</attribute>
				<attribute name="type" class="java.lang.String">tertiary</attribute>
			</attributes>
		</link>
		<link id="121" from="7094485197" to="2093035861" length="17.572003265814715" freespeed="13.88888888888889" capacity="600.0" permlanes="1.0" oneway="1" modes="car,bicycle" >
			<attributes>
				<attribute name="origid" class="java.lang.String">200292027</attribute>
				<attribute name="type" class="java.lang.String">tertiary</attribute>
			</attributes>
		</link>
		<link id="122" from="3216804790" to="4004620085" length="33.55669456589792" freespeed="19.444444444444443" capacity="4000.0" permlanes="2.0" oneway="1" modes="car,bicycle" >
			<attributes>
				<attribute name="origid" class="java.lang.String">397686399</attribute>
				<attribute name="type" class="java.lang.String">trunk</attribute>
			</attributes>
		</link>
		<link id="123" from="4004630079" to="8936981953" length="125.83958719623374" freespeed="16.666666666666668" capacity="4000.0" permlanes="2.0" oneway="1" modes="car,bicycle" >
			<attributes>
				<attribute name="origid" class="java.lang.String">101876190</attribute>
				<attribute name="type" class="java.lang.String">trunk</attribute>
			</attributes>
		</link>
		<link id="124" from="8936981953" to="257926216" length="219.33602324157278" freespeed="16.666666666666668" capacity="4000.0" permlanes="2.0" oneway="1" modes="car,bicycle" >
			<attributes>
				<attribute name="origid" class="java.lang.String">101876190</attribute>
				<attribute name="type" class="java.lang.String">trunk</attribute>
			</attributes>
		</link>
		<link id="125" from="2093035861" to="6293658228" length="911.7819737401632" freespeed="13.88888888888889" capacity="600.0" permlanes="1.0" oneway="1" modes="car,bicycle" >
			<attributes>
				<attribute name="origid" class="java.lang.String">672063938</attribute>
				<attribute name="type" class="java.lang.String">tertiary</attribute>
			</attributes>
		</link>
		<link id="126" from="6293658228" to="2093035861" length="911.7819737401632" freespeed="13.88888888888889" capacity="600.0" permlanes="1.0" oneway="1" modes="car,bicycle" >
			<attributes>
				<attribute name="origid" class="java.lang.String">672063938</attribute>
				<attribute name="type" class="java.lang.String">tertiary</attribute>
			</attributes>
		</link>
		<link id="127" from="1980551964" to="1837320459" length="273.5135544404011" freespeed="11.11111111111111" capacity="600.0" permlanes="1.0" oneway="1" modes="car,bicycle" >
			<attributes>
				<attribute name="origid" class="java.lang.String">172889216</attribute>
				<attribute name="type" class="java.lang.String">residential</attribute>
			</attributes>
		</link>
		<link id="128" from="1837320459" to="1980551964" length="273.5135544404011" freespeed="11.11111111111111" capacity="600.0" permlanes="1.0" oneway="1" modes="car,bicycle" >
			<attributes>
				<attribute name="origid" class="java.lang.String">172889216</attribute>
				<attribute name="type" class="java.lang.String">residential</attribute>
			</attributes>
		</link>
		<link id="129" from="618073249" to="3033895841" length="60.62323122230168" freespeed="11.11111111111111" capacity="4000.0" permlanes="2.0" oneway="1" modes="car,bicycle" >
			<attributes>
				<attribute name="origid" class="java.lang.String">48678962</attribute>
				<attribute name="type" class="java.lang.String">trunk</attribute>
			</attributes>
		</link>
		<link id="13" from="257927914" to="896200883" length="758.8806363579397" freespeed="13.88888888888889" capacity="600.0" permlanes="1.0" oneway="1" modes="car,bicycle" >
			<attributes>
				<attribute name="origid" class="java.lang.String">23802863</attribute>
				<attribute name="type" class="java.lang.String">tertiary</attribute>
			</attributes>
		</link>
		<link id="130" from="3033895841" to="618043757" length="31.586467788545765" freespeed="11.11111111111111" capacity="4000.0" permlanes="2.0" oneway="1" modes="car,bicycle" >
			<attributes>
				<attribute name="origid" class="java.lang.String">48678962</attribute>
				<attribute name="type" class="java.lang.String">trunk</attribute>
			</attributes>
		</link>
		<link id="131" from="1837354773" to="1694529787" length="128.58332562984896" freespeed="13.88888888888889" capacity="1200.0" permlanes="2.0" oneway="1" modes="car,bicycle" >
			<attributes>
				<attribute name="origid" class="java.lang.String">668981515</attribute>
				<attribute name="type" class="java.lang.String">tertiary</attribute>
			</attributes>
		</link>
		<link id="132" from="1694529787" to="3033904482" length="67.67667382092863" freespeed="13.88888888888889" capacity="1200.0" permlanes="2.0" oneway="1" modes="car,bicycle" >
			<attributes>
				<attribute name="origid" class="java.lang.String">668981515</attribute>
				<attribute name="type" class="java.lang.String">tertiary</attribute>
			</attributes>
		</link>
		<link id="133" from="2315631896" to="618073265" length="163.1647146315808" freespeed="11.11111111111111" capacity="600.0" permlanes="1.0" oneway="1" modes="car,bicycle" >
			<attributes>
				<attribute name="origid" class="java.lang.String">668981514</attribute>
				<attribute name="type" class="java.lang.String">tertiary</attribute>
			</attributes>
		</link>
		<link id="134" from="8938887933" to="8938887932" length="87.29048937507721" freespeed="4.166666666666667" capacity="600.0" permlanes="1.0" oneway="1" modes="car,bicycle" >
			<attributes>
				<attribute name="origid" class="java.lang.String">966192835</attribute>
				<attribute name="type" class="java.lang.String">residential</attribute>
			</attributes>
		</link>
		<link id="135" from="8938887932" to="8938887933" length="87.29048937507721" freespeed="4.166666666666667" capacity="600.0" permlanes="1.0" oneway="1" modes="car,bicycle" >
			<attributes>
				<attribute name="origid" class="java.lang.String">966192835</attribute>
				<attribute name="type" class="java.lang.String">residential</attribute>
			</attributes>
		</link>
		<link id="136" from="5693657962" to="8939407003" length="39.98704070884449" freespeed="13.88888888888889" capacity="4000.0" permlanes="2.0" oneway="1" modes="car,bicycle" >
			<attributes>
				<attribute name="origid" class="java.lang.String">414461282</attribute>
				<attribute name="type" class="java.lang.String">trunk</attribute>
			</attributes>
		</link>
		<link id="137" from="8939407003" to="4004597816" length="291.6112445559621" freespeed="13.88888888888889" capacity="4000.0" permlanes="2.0" oneway="1" modes="car,bicycle" >
			<attributes>
				<attribute name="origid" class="java.lang.String">414461282</attribute>
				<attribute name="type" class="java.lang.String">trunk</attribute>
			</attributes>
		</link>
		<link id="138" from="618073265" to="618073249" length="82.85032306255764" freespeed="11.11111111111111" capacity="4000.0" permlanes="2.0" oneway="1" modes="car,bicycle" >
			<attributes>
				<attribute name="origid" class="java.lang.String">668981513</attribute>
				<attribute name="type" class="java.lang.String">trunk</attribute>
			</attributes>
		</link>
		<link id="139" from="1980551980" to="618043747" length="1063.2525082524196" freespeed="11.11111111111111" capacity="600.0" permlanes="1.0" oneway="1" modes="car,bicycle" >
			<attributes>
				<attribute name="origid" class="java.lang.String">157242887</attribute>
				<attribute name="type" class="java.lang.String">residential</attribute>
			</attributes>
		</link>
		<link id="14" from="1980535816" to="1837428844" length="245.5587539218026" freespeed="11.11111111111111" capacity="600.0" permlanes="1.0" oneway="1" modes="car,bicycle" >
			<attributes>
				<attribute name="origid" class="java.lang.String">172901707</attribute>
				<attribute name="type" class="java.lang.String">residential</attribute>
			</attributes>
		</link>
		<link id="140" from="618043747" to="1980551980" length="1063.2525082524196" freespeed="11.11111111111111" capacity="600.0" permlanes="1.0" oneway="1" modes="car,bicycle" >
			<attributes>
				<attribute name="origid" class="java.lang.String">157242887</attribute>
				<attribute name="type" class="java.lang.String">residential</attribute>
			</attributes>
		</link>
		<link id="141" from="9201280520" to="4004620083" length="6.155544195893976" freespeed="19.444444444444443" capacity="4000.0" permlanes="2.0" oneway="1" modes="car,bicycle" >
			<attributes>
				<attribute name="origid" class="java.lang.String">666039786</attribute>
				<attribute name="type" class="java.lang.String">trunk</attribute>
			</attributes>
		</link>
		<link id="142" from="4004620083" to="4004620069" length="36.3576869464583" freespeed="19.444444444444443" capacity="4000.0" permlanes="2.0" oneway="1" modes="car,bicycle" >
			<attributes>
				<attribute name="origid" class="java.lang.String">666039786</attribute>
				<attribute name="type" class="java.lang.String">trunk</attribute>
			</attributes>
		</link>
		<link id="143" from="4004620069" to="4004620077" length="20.556525329052725" freespeed="19.444444444444443" capacity="4000.0" permlanes="2.0" oneway="1" modes="car,bicycle" >
			<attributes>
				<attribute name="origid" class="java.lang.String">666039786</attribute>
				<attribute name="type" class="java.lang.String">trunk</attribute>
			</attributes>
		</link>
		<link id="144" from="4004620077" to="4004620080" length="7.9772752693405815" freespeed="19.444444444444443" capacity="4000.0" permlanes="2.0" oneway="1" modes="car,bicycle" >
			<attributes>
				<attribute name="origid" class="java.lang.String">666039786</attribute>
				<attribute name="type" class="java.lang.String">trunk</attribute>
			</attributes>
		</link>
		<link id="145" from="4004620080" to="4004620073" length="15.984221741184356" freespeed="19.444444444444443" capacity="4000.0" permlanes="2.0" oneway="1" modes="car,bicycle" >
			<attributes>
				<attribute name="origid" class="java.lang.String">666039786</attribute>
				<attribute name="type" class="java.lang.String">trunk</attribute>
			</attributes>
		</link>
		<link id="146" from="4004620073" to="4004620078" length="4.279094834637606" freespeed="19.444444444444443" capacity="4000.0" permlanes="2.0" oneway="1" modes="car,bicycle" >
			<attributes>
				<attribute name="origid" class="java.lang.String">666039786</attribute>
				<attribute name="type" class="java.lang.String">trunk</attribute>
			</attributes>
		</link>
		<link id="147" from="4004620078" to="4004620085" length="18.09535538077677" freespeed="19.444444444444443" capacity="4000.0" permlanes="2.0" oneway="1" modes="car,bicycle" >
			<attributes>
				<attribute name="origid" class="java.lang.String">666039786</attribute>
				<attribute name="type" class="java.lang.String">trunk</attribute>
			</attributes>
		</link>
		<link id="148" from="4004620085" to="4004620076" length="4.499892080090213" freespeed="19.444444444444443" capacity="4000.0" permlanes="2.0" oneway="1" modes="car,bicycle" >
			<attributes>
				<attribute name="origid" class="java.lang.String">666039786</attribute>
				<attribute name="type" class="java.lang.String">trunk</attribute>
			</attributes>
		</link>
		<link id="149" from="4004620076" to="9201280520" length="12.294301657243679" freespeed="19.444444444444443" capacity="4000.0" permlanes="2.0" oneway="1" modes="car,bicycle" >
			<attributes>
				<attribute name="origid" class="java.lang.String">666039786</attribute>
				<attribute name="type" class="java.lang.String">trunk</attribute>
			</attributes>
		</link>
		<link id="15" from="1837428844" to="1980535816" length="245.5587539218026" freespeed="11.11111111111111" capacity="600.0" permlanes="1.0" oneway="1" modes="car,bicycle" >
			<attributes>
				<attribute name="origid" class="java.lang.String">172901707</attribute>
				<attribute name="type" class="java.lang.String">residential</attribute>
			</attributes>
		</link>
		<link id="150" from="4156039473" to="4156039475" length="32.90786274037774" freespeed="6.944444444444445" capacity="600.0" permlanes="1.0" oneway="1" modes="car,bicycle" >
			<attributes>
				<attribute name="origid" class="java.lang.String">414461288</attribute>
				<attribute name="type" class="java.lang.String">tertiary_link</attribute>
			</attributes>
		</link>
		<link id="151" from="1694529734" to="2375441070" length="48.602050517121086" freespeed="11.11111111111111" capacity="600.0" permlanes="1.0" oneway="1" modes="car,bicycle" >
			<attributes>
				<attribute name="origid" class="java.lang.String">228885185</attribute>
				<attribute name="type" class="java.lang.String">tertiary</attribute>
			</attributes>
		</link>
		<link id="152" from="2375441070" to="2078304672" length="155.93271889194597" freespeed="11.11111111111111" capacity="600.0" permlanes="1.0" oneway="1" modes="car,bicycle" >
			<attributes>